1ype_ligand
  -I-interpret- 

 64 69  0  0  0  0  0  0  0  0999 V2000
   10.4780  -11.8790   24.1020 N   0  0  0  0  0
   11.2010  -10.8070   23.7380 C   0  0  0  0  0
   10.8160   -9.6400   24.3190 N   0  0  0  0  0
   12.2760  -10.9070   22.8150 C   0  0  0  0  0
   12.5950  -12.1660   22.2840 C   0  0  0  0  0
   13.6580  -12.3050   21.3750 C   0  0  0  0  0
   14.4080  -11.1940   20.9800 C   0  0  0  0  0
   14.0640   -9.9390   21.5120 C   0  0  0  0  0
   13.0340   -9.7900   22.4220 C   0  0  0  0  0
   15.5400  -11.3240   19.9990 C   0  0  0  0  0
   15.3840  -12.5390   19.1310 N   0  3  0  0  0
   14.3780  -12.4050   18.0400 C   0  0  0  0  0
   15.1810  -12.4830   16.7170 C   0  0  0  0  0
   16.5850  -12.0440   17.0900 C   0  0  0  0  0
   16.7410  -12.7050   18.4770 C   0  0  0  0  0
   17.7720  -11.8600   19.2980 C   0  0  0  0  0
   18.8750  -12.8050   19.8750 C   0  0  0  0  0
   18.3590  -13.2410   21.1420 N   0  0  0  0  0
   17.1700  -12.6420   21.4890 C   0  0  0  0  0
   16.6000  -12.7760   22.6030 O   0  0  0  0  0
   16.9660  -11.4190   20.5600 C   0  0  0  0  0
   18.8590  -14.4250   21.9280 C   0  0  0  0  0
   19.8900  -14.1260   22.9970 C   0  0  0  0  0
   19.4920  -13.6940   24.3040 C   0  0  0  0  0
   20.3820  -13.3700   25.3500 C   0  0  0  0  0
   21.7340  -13.4580   25.0110 C   0  0  0  0  0
   22.8270  -13.0620   25.7580 O   0  0  0  0  0
   23.9540  -13.7110   25.0730 C   0  0  0  0  0
   23.5520  -14.1020   23.7340 O   0  0  0  0  0
   22.1660  -13.8890   23.7400 C   0  0  0  0  0
   21.2620  -14.2250   22.7050 C   0  0  0  0  0
   20.2760  -12.1470   19.9730 C   0  0  0  0  0
   20.9020  -12.0300   18.5770 C   0  0  0  0  0
   10.6953  -12.7966   23.7132 H   0  0  0  0  0
   10.0337   -9.6299   24.9735 H   0  0  0  0  0
   11.3094   -8.7744   24.1005 H   0  0  0  0  0
   12.0153  -13.0410   22.5780 H   0  0  0  0  0
   13.8998  -13.2893   20.9741 H   0  0  0  0  0
   14.6251   -9.0588   21.1982 H   0  0  0  0  0
   12.8095   -8.8065   22.8348 H   0  0  0  0  0
   15.4530  -10.3761   19.4679 H   0  0  0  0  0
   15.0646  -13.3171   19.7080 H   0  0  0  0  0
   13.8302  -11.4659   18.1177 H   0  0  0  0  0
   13.6251  -13.1912   18.0949 H   0  0  0  0  0
   14.7497  -11.8490   15.9423 H   0  0  0  0  0
   15.1687  -13.4872   16.2932 H   0  0  0  0  0
   16.7215  -10.9626   17.0987 H   0  0  0  0  0
   17.3468  -12.3435   16.3703 H   0  0  0  0  0
   17.0668  -13.7437   18.4212 H   0  0  0  0  0
   18.2058  -11.0631   18.6940 H   0  0  0  0  0
   19.0625  -13.6456   19.2069 H   0  0  0  0  0
   17.2221  -10.4980   21.0836 H   0  0  0  0  0
   19.3455  -15.0853   21.2101 H   0  0  0  0  0
   17.9924  -14.8365   22.4455 H   0  0  0  0  0
   18.4240  -13.6095   24.5049 H   0  0  0  0  0
   20.0417  -13.0748   26.3426 H   0  0  0  0  0
   24.2562  -14.5961   25.6328 H   0  0  0  0  0
   24.7894  -13.0136   25.0106 H   0  0  0  0  0
   21.6134  -14.5464   21.7245 H   0  0  0  0  0
   20.9177  -12.7636   20.6024 H   0  0  0  0  0
   20.1742  -11.1511   20.4042 H   0  0  0  0  0
   21.0025  -13.0239   18.1408 H   0  0  0  0  0
   20.2615  -11.4167   17.9432 H   0  0  0  0  0
   21.8852  -11.5666   18.6588 H   0  0  0  0  0
  1  2  2  0  0  0
  2  3  1  0  0  0
  2  4  1  0  0  0
  4  5  4  0  0  0
  4  9  4  0  0  0
  5  6  4  0  0  0
  6  7  4  0  0  0
  7  8  4  0  0  0
  7 10  1  0  0  0
  8  9  4  0  0  0
 10 11  1  0  0  0
 10 21  1  0  0  0
 11 12  1  0  0  0
 11 15  1  0  0  0
 12 13  1  0  0  0
 13 14  1  0  0  0
 14 15  1  0  0  0
 15 16  1  0  0  0
 16 17  1  0  0  0
 16 21  1  0  0  0
 17 18  1  0  0  0
 17 32  1  0  0  0
 18 19  1  0  0  0
 18 22  1  0  0  0
 19 20  2  0  0  0
 19 21  1  0  0  0
 22 23  1  0  0  0
 23 24  4  0  0  0
 23 31  4  0  0  0
 24 25  4  0  0  0
 25 26  4  0  0  0
 26 27  1  0  0  0
 26 30  4  0  0  0
 27 28  1  0  0  0
 28 29  1  0  0  0
 29 30  1  0  0  0
 30 31  4  0  0  0
 32 33  1  0  0  0
  1 34  1  0  0  0
  3 35  1  0  0  0
  3 36  1  0  0  0
  5 37  1  0  0  0
  6 38  1  0  0  0
  8 39  1  0  0  0
  9 40  1  0  0  0
 10 41  1  0  0  0
 11 42  1  0  0  0
 12 43  1  0  0  0
 12 44  1  0  0  0
 13 45  1  0  0  0
 13 46  1  0  0  0
 14 47  1  0  0  0
 14 48  1  0  0  0
 15 49  1  0  0  0
 16 50  1  0  0  0
 17 51  1  0  0  0
 21 52  1  0  0  0
 22 53  1  0  0  0
 22 54  1  0  0  0
 24 55  1  0  0  0
 25 56  1  0  0  0
 28 57  1  0  0  0
 28 58  1  0  0  0
 31 59  1  0  0  0
 32 60  1  0  0  0
 32 61  1  0  0  0
 33 62  1  0  0  0
 33 63  1  0  0  0
 33 64  1  0  0  0
M  END
$$$$
