1e66_ligand
  -I-interpret- 

 40 43  0  0  0  0  0  0  0  0999 V2000
    5.9600   69.5810   65.3090 N   0  0  0  0  0
    1.8860   69.4300   66.4690 N   0  0  0  0  0
    6.3780   70.6350   68.8450 C   0  0  0  0  0
    6.6700   70.2770   67.4340 C   0  0  0  0  0
    5.5690   69.9500   66.6660 C   0  0  0  0  0
    4.9750   69.1980   64.4700 C   0  0  0  0  0
    5.5190   68.7840   62.9970 C   0  0  0  0  0
    4.5270   67.8800   62.2460 C   0  0  0  0  0
    4.2820   66.4050   62.9960 C   0  0  0  0  0
    3.3050   66.0890   63.8490 C   0  0  0  0  0
    2.3030   67.1800   64.1500 C   0  0  0  0  0
    4.3940   63.6190   64.1310 C   0  0  0  0  0
    2.6210   68.6020   63.7090 C   0  0  0  0  0
    3.1710   68.5550   62.2170 C   0  0  0  0  0
    3.6230   69.1100   64.7520 C   0  0  0  0  0
    3.2280   69.5120   66.1460 C   0  0  0  0  0
    4.2480   69.9120   67.0430 C   0  0  0  0  0
    3.9130   70.3030   68.4610 C   0  0  0  0  0
    4.9340   70.6300   69.2740 C   0  0  0  0  0
    3.2790   64.6360   64.4660 C   0  0  0  0  0
    7.5600   70.9960   69.9590 Cl  0  0  0  0  0
    1.2129   69.1076   65.7737 H   0  0  0  0  0
    1.5692   69.6919   67.4025 H   0  0  0  0  0
    7.6831   70.2725   67.0318 H   0  0  0  0  0
    6.4521   68.2345   63.1215 H   0  0  0  0  0
    5.6541   69.6963   62.4160 H   0  0  0  0  0
    4.9545   67.7166   61.2567 H   0  0  0  0  0
    4.9976   65.6165   62.7630 H   0  0  0  0  0
    2.2494   67.2248   65.2378 H   0  0  0  0  0
    1.4064   66.9038   63.5950 H   0  0  0  0  0
    4.4120   63.4426   63.0555 H   0  0  0  0  0
    5.3564   64.0183   64.4511 H   0  0  0  0  0
    4.1971   62.6815   64.6510 H   0  0  0  0  0
    1.7702   69.2825   63.6743 H   0  0  0  0  0
    2.4849   67.9997   61.5775 H   0  0  0  0  0
    3.2584   69.5637   61.8134 H   0  0  0  0  0
    2.8819   70.3200   68.8139 H   0  0  0  0  0
    4.7029   70.9073   70.3025 H   0  0  0  0  0
    2.3748   64.1869   64.0551 H   0  0  0  0  0
    3.3790   64.7991   65.5391 H   0  0  0  0  0
  1  5  4  0  0  0
  1  6  4  0  0  0
  6 15  4  0  0  0
  6  7  1  0  0  0
  7  8  1  0  0  0
  8 14  1  0  0  0
  8  9  1  0  0  0
  9 10  2  0  0  0
 10 20  1  0  0  0
 10 11  1  0  0  0
 11 13  1  0  0  0
 13 15  1  0  0  0
 13 14  1  0  0  0
 15 16  4  0  0  0
 16  2  1  0  0  0
 16 17  4  0  0  0
 17 18  4  0  0  0
 17  5  4  0  0  0
  5  4  4  0  0  0
  4  3  4  0  0  0
  3 19  4  0  0  0
 18 19  4  0  0  0
 20 12  1  0  0  0
  3 21  1  0  0  0
  2 22  1  0  0  0
  2 23  1  0  0  0
  4 24  1  0  0  0
  7 25  1  0  0  0
  7 26  1  0  0  0
  8 27  1  0  0  0
  9 28  1  0  0  0
 11 29  1  0  0  0
 11 30  1  0  0  0
 12 31  1  0  0  0
 12 32  1  0  0  0
 12 33  1  0  0  0
 13 34  1  0  0  0
 14 35  1  0  0  0
 14 36  1  0  0  0
 18 37  1  0  0  0
 19 38  1  0  0  0
 20 39  1  0  0  0
 20 40  1  0  0  0
M  END
$$$$
